SOL 105
CEND
TITLE = OpenJFEM bundled precompile SOL105 shell buckling
SUBCASE 1
  SPC = 1
  LOAD = 1
SUBCASE 2
  SPC = 1
  METHOD = 1
  STATSUB = 1
BEGIN BULK
PARAM,AUTOSPC,YES
GRID,1,,0.,0.,0.
GRID,2,,1.,0.,0.
GRID,3,,1.,1.,0.
GRID,4,,0.,1.,0.
CQUAD4,1,1,1,2,3,4
PSHELL,1,1,0.02
MAT1,1,7.0E10,2.6923E10,0.3,2700.
SPC1,1,123456,1,4
FORCE,1,2,0,-1000.,1.,0.,0.
FORCE,1,3,0,-1000.,1.,0.,0.
EIGRL,1,0.,1.0E9,3
ENDDATA
